Circuit: * C:\Users\michaelc\OneDrive\Iso Diff Probe\Input Divider.asc

.OP point found by inspection.

Date: Fri May 17 07:50:14 2024
Total elapsed time: 0.081 seconds.

tnom = 27
temp = 27
method = trap
totiter = 0
traniter = 0
tranpoints = 0
accept = 0
rejected = 0
matrix size = 23
fillins = 12
solver = Normal
Avg thread counts: 20.0/0.0/0.0/10.8
Matrix Compiler1:     104 opcodes
Matrix Compiler2:     155 opcodes
